Version 4.1
SHEET 1 2712 880
WIRE 528 -240 528 -272
WIRE 528 -144 528 -160
WIRE 784 -64 688 -64
WIRE 960 -64 848 -64
WIRE 688 48 688 -64
WIRE 752 48 688 48
WIRE 960 48 960 -64
WIRE 960 48 832 48
WIRE 976 48 960 48
WIRE 16 128 -64 128
WIRE 368 128 16 128
WIRE 480 128 368 128
WIRE 688 128 688 48
WIRE 688 128 560 128
WIRE 16 144 16 128
WIRE 1360 160 1216 160
WIRE 1440 160 1360 160
WIRE 1584 160 1520 160
WIRE 1664 160 1584 160
WIRE 1808 160 1744 160
WIRE 1968 160 1808 160
WIRE 2096 160 1968 160
WIRE 2208 160 2096 160
WIRE 2304 160 2208 160
WIRE 2416 176 2384 176
WIRE 688 208 688 128
WIRE 752 208 688 208
WIRE 976 208 976 48
WIRE 976 208 912 208
WIRE 1024 208 976 208
WIRE 1216 208 1216 160
WIRE 1216 208 1104 208
WIRE 1360 224 1360 160
WIRE 1584 224 1584 160
WIRE 1808 224 1808 160
WIRE 1968 224 1968 160
WIRE 2096 224 2096 160
WIRE 2208 224 2208 160
WIRE 2384 224 2384 176
WIRE -64 240 -64 208
WIRE 16 240 16 224
WIRE 16 240 -64 240
WIRE 640 240 624 240
WIRE 752 240 640 240
WIRE 2304 240 2304 160
WIRE 2336 240 2304 240
WIRE 752 272 688 272
WIRE 912 272 896 272
WIRE 976 272 912 272
WIRE 976 288 976 272
WIRE 1024 288 976 288
WIRE 1216 288 1104 288
WIRE 2336 288 2304 288
WIRE -64 336 -64 240
WIRE 784 352 784 320
WIRE 1216 352 1216 288
WIRE 1360 352 1360 288
WIRE 1360 352 1216 352
WIRE 1440 352 1360 352
WIRE 1584 352 1584 288
WIRE 1584 352 1520 352
WIRE 1664 352 1584 352
WIRE 1808 352 1808 288
WIRE 1808 352 1744 352
WIRE 1968 352 1968 304
WIRE 1968 352 1808 352
WIRE 2096 352 2096 288
WIRE 2096 352 1968 352
WIRE 2208 352 2208 304
WIRE 2208 352 2096 352
WIRE 2304 352 2304 288
WIRE 2304 352 2208 352
WIRE 16 400 -64 400
WIRE 368 400 16 400
WIRE 464 400 368 400
WIRE 688 400 688 272
WIRE 688 400 544 400
WIRE 16 416 16 400
WIRE 368 416 368 400
WIRE 688 464 688 400
WIRE 704 464 688 464
WIRE 752 464 704 464
WIRE 928 464 832 464
WIRE 976 464 976 288
WIRE 976 464 928 464
WIRE -64 512 -64 480
WIRE -16 512 -64 512
WIRE 16 512 16 496
WIRE 16 512 -16 512
WIRE 704 576 704 464
WIRE 800 576 704 576
WIRE 928 576 928 464
WIRE 928 576 864 576
FLAG 368 496 0
FLAG 368 208 0
FLAG 784 352 0
FLAG 384 -176 0
FLAG 384 -256 Vcc
FLAG 784 160 Vcc
FLAG 528 -144 0
FLAG 528 -272 Voutcom
FLAG 640 240 Voutcom
FLAG 2384 304 0
FLAG 2416 176 Vbb-diff
FLAG -64 336 0
FLAG -16 512 0
SYMBOL current -64 480 R180
WINDOW 0 24 80 Left 2
WINDOW 3 24 0 Left 2
WINDOW 123 24 -28 Left 2
WINDOW 39 0 0 Left 0
SYMATTR InstName I2
SYMATTR Value SINE(0 10m 18000  0 0 180)
SYMATTR Value2 AC 10m 180
SYMBOL current -64 208 R180
WINDOW 0 24 80 Left 2
WINDOW 3 24 0 Left 2
WINDOW 123 24 -28 Left 2
WINDOW 39 0 0 Left 0
SYMATTR InstName I1
SYMATTR Value SINE(0 10m 18000 0 0 0)
SYMATTR Value2 AC 10m 0
SYMBOL res 352 112 R0
SYMATTR InstName R1
SYMATTR Value 25
SYMBOL res 352 400 R0
SYMATTR InstName 25
SYMATTR Value 25
SYMBOL res 576 112 R90
WINDOW 0 0 56 VBottom 2
WINDOW 3 32 56 VTop 2
SYMATTR InstName R4
SYMATTR Value 1000
SYMBOL res 560 384 R90
WINDOW 0 0 56 VBottom 2
WINDOW 3 32 56 VTop 2
SYMATTR InstName R5
SYMATTR Value 1000
SYMBOL res 848 32 R90
WINDOW 0 0 56 VBottom 2
WINDOW 3 32 56 VTop 2
SYMATTR InstName R6
SYMATTR Value 2000
SYMBOL res 848 448 R90
WINDOW 0 0 56 VBottom 2
WINDOW 3 32 56 VTop 2
SYMATTR InstName R7
SYMATTR Value 2000
SYMBOL voltage 384 -272 R0
WINDOW 123 0 0 Left 0
WINDOW 39 0 0 Left 0
SYMATTR InstName V1
SYMATTR Value 3.3
SYMBOL voltage 528 -256 R0
WINDOW 123 0 0 Left 0
WINDOW 39 0 0 Left 0
SYMATTR InstName V2
SYMATTR Value 1.4
SYMBOL res 1120 192 R90
WINDOW 0 0 56 VBottom 2
WINDOW 3 32 56 VTop 2
SYMATTR InstName R9
SYMATTR Value 50
SYMBOL res 1120 272 R90
WINDOW 0 0 56 VBottom 2
WINDOW 3 32 56 VTop 2
SYMATTR InstName R10
SYMATTR Value 50
SYMBOL OpAmps\\LTC6362 816 240 R0
SYMATTR InstName U1
SYMBOL ind 1424 176 R270
WINDOW 0 32 56 VTop 2
WINDOW 3 5 56 VBottom 2
SYMATTR InstName L1
SYMATTR Value 20.5µ
SYMBOL ind 1648 176 R270
WINDOW 0 32 56 VTop 2
WINDOW 3 5 56 VBottom 2
SYMATTR InstName L2
SYMATTR Value 44.20µ
SYMBOL ind 1424 368 R270
WINDOW 0 32 56 VTop 2
WINDOW 3 5 56 VBottom 2
SYMATTR InstName L3
SYMATTR Value 20.5µ
SYMBOL ind 1648 368 R270
WINDOW 0 32 56 VTop 2
WINDOW 3 5 56 VBottom 2
SYMATTR InstName L4
SYMATTR Value 44.20µ
SYMBOL cap 1344 224 R0
SYMATTR InstName C2
SYMATTR Value 1.37n
SYMBOL cap 1568 224 R0
SYMATTR InstName C5
SYMATTR Value 6.35n
SYMBOL cap 1792 224 R0
SYMATTR InstName C8
SYMATTR Value 18.25n
SYMBOL e 2384 208 R0
SYMATTR InstName E2
SYMATTR Value 1
SYMBOL current 16 224 R180
WINDOW 0 24 80 Left 2
WINDOW 3 24 0 Left 2
WINDOW 123 0 0 Left 0
WINDOW 39 0 0 Left 0
SYMATTR InstName I3
SYMATTR Value 10m
SYMBOL current 16 496 R180
WINDOW 0 24 80 Left 2
WINDOW 3 24 0 Left 2
WINDOW 123 0 0 Left 0
WINDOW 39 0 0 Left 0
SYMATTR InstName I4
SYMATTR Value 10m
SYMBOL cap 864 560 R90
WINDOW 0 0 32 VBottom 2
WINDOW 3 32 32 VTop 2
SYMATTR InstName C1
SYMATTR Value 220p
SYMBOL cap 848 -80 R90
WINDOW 0 0 32 VBottom 2
WINDOW 3 32 32 VTop 2
SYMATTR InstName C11
SYMATTR Value 220p
SYMBOL cap 2080 224 R0
SYMATTR InstName C12
SYMATTR Value 9.4p
SYMBOL res 2192 208 R0
SYMATTR InstName R3
SYMATTR Value 1.91k
SYMBOL res 1952 208 R0
SYMATTR InstName R2
SYMATTR Value 102
TEXT 1520 -160 Left 2 !.tran 0 10m 0 100n
TEXT 1600 -8 Bottom 3 ;DAC Re-Construct LPF
TEXT 2416 56 Center 3 ;LTC5599
TEXT 2352 96 Left 2 ;Vcm= 1.4V
TEXT 1496 -104 Left 2 ;.ac dec 20 1 4MEG
TEXT -208 40 Bottom 3 ;AD9114 \n20mA fullscale current for I/Q Channel
RECTANGLE Normal 2544 120 2272 384 2
RECTANGLE Normal 1888 496 1312 0 2
RECTANGLE Normal 128 560 -448 64 2
